14

C    1.9658793   -0.1276090   -0.0000407
C    0.5687377    0.5227970   -0.0000472
C   -0.5687319   -0.5227810   -0.0000360
C   -1.9658734    0.1276253   -0.0000424
H    2.7415018    0.6325126   -0.0000197
H    2.1002934   -0.7502484   -0.8796035
H    2.1002619   -0.7502619    0.8795171
H    0.4690106    1.1614923   -0.8758186
H    0.4690265    1.1614206    0.8757795
H   -0.4690203   -1.1613855    0.8758044
H   -0.4690052   -1.1614951   -0.8757938
H   -2.1002569    0.7502934    0.8795046
H   -2.7414960   -0.6324962   -0.0000089
H   -2.1002861    0.7502495   -0.8796161